test/TEST190523/v_h25.csv
Bus, BasekV, Node1, Magnitude1, Angle1, pu1, Node2, Magnitude2, Angle2, pu2, Node3, Magnitude3, Angle3, pu3
"SOURCEBUS", 69, 1,    41832.4,   -0.2,    1.0501, 2,    41823.1, -120.2,    1.0499, 3,    41805.1,  119.8,    1.0494
"BUSMVMAI1", 12.8, 1,    7762.23,  -30.5,    1.0504, 2,    7764.67, -150.6,    1.0507, 3,    7751.21,   89.3,    1.0489
"BUSMVMAI136", 12.505, 1,    7762.23,  -30.5,    1.0751, 2,    7764.63, -150.6,    1.0754, 3,    7751.16,   89.3,    1.0736
"BUSMVMAI3", 12.505, 1,    7758.62,  -30.9,    1.0746, 2,    7735.24, -150.9,    1.0714, 3,    7716.13,   88.7,    1.0687
"BUSMVMAI2", 12.505, 1,    7758.61,  -30.9,    1.0746, 2,    7735.16, -150.9,    1.0714, 3,    7716.04,   88.7,    1.0687
"BUSMVMAI4", 12.505, 1,    7758.51,  -30.9,    1.0746, 2,    7734.33, -150.9,    1.0712, 3,    7715.06,   88.6,    1.0686
"BUSMVMAI46", 12.505, 1,    7758.62,  -30.9,    1.0746, 2,    7735.27, -150.9,    1.0714, 3,    7716.17,   88.7,    1.0687
"BUSMVMAI5", 12.505, 1,    7758.17,  -30.9,    1.0745, 2,    7733.31, -150.9,    1.0711, 3,     7713.9,   88.6,    1.0684
"BUSMVMAI862", 12.505, 1,    7758.51,  -30.9,    1.0746, 0, 0, 0, 0, 0, 0, 0, 0
"BUSMVMAI6", 12.505, 1,     7758.1,  -30.9,    1.0745, 2,    7733.13, -150.9,    1.0711, 3,    7713.69,   88.6,    1.0684
"BUSMVMAI859", 12.505, 3,    7713.88,   88.6,    1.0684, 0, 0, 0, 0, 0, 0, 0, 0
"BUSMVMAI860", 12.505, 3,     7713.9,   88.6,    1.0684, 0, 0, 0, 0, 0, 0, 0, 0
"BUSMVMAI7", 12.505, 1,    7757.61,  -30.9,    1.0745, 2,    7732.28, -150.9,     1.071, 3,     7712.7,   88.6,    1.0682
"BUSMVMAI8", 12.505, 1,    7757.84,  -30.9,    1.0745, 2,    7730.95, -150.9,    1.0708, 3,    7712.04,   88.6,    1.0681
"BUSMVMAI9", 12.505, 1,    7757.61,  -30.9,    1.0745, 2,    7732.28, -150.9,     1.071, 3,     7712.7,   88.6,    1.0682
"BUSMVMAI10", 12.505, 1,    7757.24,  -30.9,    1.0744, 2,    7732.29, -150.9,     1.071, 3,     7712.4,   88.6,    1.0682
"BUSMVMAI56", 12.505, 1,    7757.42,  -30.9,    1.0744, 2,    7732.28, -150.9,     1.071, 3,    7712.55,   88.6,    1.0682
"BUSMVMAI861", 12.505, 3,    7713.83,   88.6,    1.0684, 0, 0, 0, 0, 0, 0, 0, 0
"BUSMVMAI12", 12.505, 1,    7758.04,  -30.9,    1.0745, 2,    7729.86, -150.9,    1.0706, 3,     7711.5,   88.6,    1.0681
"BUSMVMAI51", 12.505, 1,    7757.84,  -30.9,    1.0745, 2,    7730.95, -150.9,    1.0708, 3,    7712.04,   88.6,    1.0681
"BUSMVMAI2171", 12.505, 1,    7757.84,  -30.9,    1.0745, 0, 0, 0, 0, 0, 0, 0, 0
"BUSMVMAI863", 12.505, 3,    7713.79,   88.6,    1.0684, 0, 0, 0, 0, 0, 0, 0, 0
"BUSMVMAI2165", 12.505, 3,     7712.7,   88.6,    1.0682, 0, 0, 0, 0, 0, 0, 0, 0
"BUSMVMAI694", 12.505, 1,    7757.61,  -30.9,    1.0745, 2,    7732.28, -150.9,     1.071, 3,     7712.7,   88.6,    1.0682
"BUSMVMAI122", 12.505, 1,    7757.21,  -30.9,    1.0744, 2,    7732.29, -150.9,     1.071, 3,    7712.38,   88.6,    1.0682
"BUSMVMAI11", 12.505, 1,    7758.04,  -30.9,    1.0745, 2,    7729.86, -150.9,    1.0706, 3,    7711.51,   88.6,    1.0681
"BUSMVMAI13", 12.505, 1,    7758.04,  -30.9,    1.0745, 2,    7729.84, -150.9,    1.0706, 3,    7711.51,   88.6,    1.0681
"BUSMVMAI18", 12.505, 1,    7758.11,  -30.9,    1.0745, 2,    7729.46, -150.9,    1.0706, 3,     7711.3,   88.6,     1.068
"BUSMVMAI14", 12.505, 1,    7758.03,  -30.9,    1.0745, 2,    7729.81, -150.9,    1.0706, 3,    7711.51,   88.6,    1.0681
"BUSMVMAI15", 12.505, 1,    7758.03,  -30.9,    1.0745, 2,    7729.78, -150.9,    1.0706, 3,    7711.52,   88.6,    1.0681
"BUSMVMAI16", 12.505, 1,    7758.04,  -30.9,    1.0745, 2,    7729.78, -150.9,    1.0706, 3,    7711.51,   88.6,    1.0681
"BUSMVMAI2166", 12.505, 2,    7729.78, -150.9,    1.0706, 0, 0, 0, 0, 0, 0, 0, 0
"BUSMVMAI2172", 12.505, 1,     7758.5,  -30.9,    1.0746, 0, 0, 0, 0, 0, 0, 0, 0
"BUSMVMAI864", 12.505, 3,    7713.76,   88.6,    1.0684, 0, 0, 0, 0, 0, 0, 0, 0
"BUSMVMAI865", 12.505, 3,    7713.72,   88.6,    1.0684, 0, 0, 0, 0, 0, 0, 0, 0
"BUSMVMAI17", 12.505, 1,    7758.04,  -30.9,    1.0745, 2,    7729.78, -150.9,    1.0706, 3,    7711.51,   88.6,    1.0681
"BUSMVMAI695", 12.505, 1,    7758.04,  -30.9,    1.0745, 2,    7729.78, -150.9,    1.0706, 3,    7711.51,   88.6,    1.0681
"BUSMVMAI866", 12.505, 3,    7713.72,   88.6,    1.0684, 0, 0, 0, 0, 0, 0, 0, 0
"BUSMVMAI2176", 12.505, 3,    7713.72,   88.6,    1.0684, 0, 0, 0, 0, 0, 0, 0, 0
"BUSMVMAI2177", 12.505, 3,    7713.72,   88.6,    1.0684, 0, 0, 0, 0, 0, 0, 0, 0
"BUSMVMAI2178", 12.505, 3,    7713.69,   88.6,    1.0684, 0, 0, 0, 0, 0, 0, 0, 0
"BUSMVMAI19", 12.505, 1,    7758.25,  -30.9,    1.0746, 2,    7728.74, -150.9,    1.0705, 3,    7710.93,   88.6,     1.068
"BUSMVMAI20", 12.505, 1,    7758.46,  -30.9,    1.0746, 2,    7727.72, -150.9,    1.0703, 3,    7710.42,   88.5,    1.0679
"BUSMVMAI53", 12.505, 1,    7758.25,  -30.9,    1.0746, 2,    7728.74, -150.9,    1.0705, 3,    7710.93,   88.6,     1.068
"BUSMVMAI21", 12.505, 1,    7758.67,  -30.9,    1.0746, 2,    7726.66, -150.9,    1.0702, 3,    7709.88,   88.5,    1.0679
"BUSMVMAI22", 12.505, 1,    7758.92,  -30.9,    1.0746, 2,     7725.4, -150.9,      1.07, 3,    7709.26,   88.5,    1.0678
"BUSMVMAI23", 12.505, 1,    7758.67,  -30.9,    1.0746, 2,    7726.66, -150.9,    1.0702, 3,    7709.88,   88.5,    1.0678
"BUSMVMAI25", 12.505, 1,    7759.17,  -30.9,    1.0747, 2,     7724.1, -150.9,    1.0698, 3,    7708.62,   88.5,    1.0677
"BUSMVMAI52", 12.505, 1,    7758.92,  -30.9,    1.0746, 2,     7725.4, -150.9,      1.07, 3,    7709.26,   88.5,    1.0678
"BUSMVMAI54", 12.505, 1,    7758.92,  -30.9,    1.0746, 2,     7725.4, -150.9,      1.07, 3,    7709.26,   88.5,    1.0678
"BUSMVMAI55", 12.505, 1,    7758.92,  -30.9,    1.0746, 2,     7725.4, -150.9,      1.07, 3,    7709.26,   88.5,    1.0678
"BUSMVMAI696", 12.505, 1,    7758.67,  -30.9,    1.0746, 2,    7726.66, -150.9,    1.0702, 3,    7709.87,   88.5,    1.0678
"BUSMVMAI24", 12.505, 1,     7759.2,  -30.9,    1.0747, 2,    7723.98, -151.0,    1.0698, 3,    7708.56,   88.5,    1.0677
"BUSMVMAI26", 12.505, 1,    7759.45,  -30.9,    1.0747, 2,    7722.69, -151.0,    1.0696, 3,    7707.94,   88.5,    1.0676
"BUSMVMAI49", 12.505, 1,    7759.17,  -30.9,    1.0747, 2,     7724.1, -150.9,    1.0698, 3,    7708.62,   88.5,    1.0677
"BUSMVMAI50", 12.505, 1,    7759.17,  -30.9,    1.0747, 2,     7724.1, -150.9,    1.0698, 3,    7708.62,   88.5,    1.0677
"BUSMVMAI27", 12.505, 1,    7759.44,  -30.9,    1.0747, 2,    7722.69, -151.0,    1.0696, 3,    7707.93,   88.5,    1.0676
"BUSMVMAI28", 12.505, 1,    7759.64,  -31.0,    1.0747, 2,    7721.69, -151.0,    1.0695, 3,    7707.46,   88.5,    1.0675
"BUSMVMAI29", 12.505, 1,    7759.43,  -30.9,    1.0747, 2,     7722.7, -151.0,    1.0696, 3,    7707.93,   88.5,    1.0676
"BUSMVMAI31", 12.505, 1,    7759.87,  -31.0,    1.0748, 2,    7720.54, -151.0,    1.0693, 3,    7706.92,   88.5,    1.0674
"BUSMVMAI30", 12.505, 1,    7759.42,  -30.9,    1.0747, 2,     7722.7, -151.0,    1.0696, 3,    7707.92,   88.5,    1.0676
"BUSMVMAI34", 12.505, 1,    7759.42,  -30.9,    1.0747, 2,    7722.71, -151.0,    1.0696, 3,    7707.91,   88.5,    1.0676
"BUSMVMAI867", 12.505, 1,    7759.84,  -31.0,    1.0748, 0, 0, 0, 0, 0, 0, 0, 0
"BUSMVMAI43", 12.505, 1,    7759.87,  -31.0,    1.0748, 2,    7720.52, -151.0,    1.0693, 3,     7706.9,   88.5,    1.0674
"BUSMVMAI871", 12.505, 2,    7720.54, -151.0,    1.0693, 0, 0, 0, 0, 0, 0, 0, 0
"BUSMVMAI33", 12.505, 1,    7759.94,  -31.0,    1.0748, 2,    7720.19, -151.0,    1.0693, 3,    7706.75,   88.4,    1.0674
"BUSMVMAI32", 12.505, 1,    7760.15,  -31.0,    1.0748, 2,    7719.19, -151.0,    1.0691, 3,     7706.3,   88.4,    1.0674
"BUSMVMAI37", 12.505, 1,    7760.43,  -31.0,    1.0749, 2,    7717.83, -151.0,     1.069, 3,    7705.69,   88.4,    1.0673
"BUSMVMAI44", 12.505, 1,    7759.88,  -31.0,    1.0748, 2,    7720.49, -151.0,    1.0693, 3,    7706.89,   88.5,    1.0674
"BUSMVMAI35", 12.505, 1,    7759.42,  -30.9,    1.0747, 2,    7722.71, -151.0,    1.0696, 3,     7707.9,   88.5,    1.0676
"BUSMVMAI36", 12.505, 1,    7759.42,  -30.9,    1.0747, 2,    7722.71, -151.0,    1.0696, 3,     7707.9,   88.5,    1.0676
"BUSMVMAI869", 12.505, 1,    7759.83,  -31.0,    1.0748, 0, 0, 0, 0, 0, 0, 0, 0
"BUSMVMAI38", 12.505, 1,    7760.66,  -31.0,    1.0749, 2,    7716.75, -151.0,    1.0688, 3,    7705.21,   88.4,    1.0672
"BUSMVMAI2181", 12.505, 1,    7760.42,  -31.0,    1.0749, 0, 0, 0, 0, 0, 0, 0, 0
"BUSMVMAI868", 12.505, 1,    7759.78,  -31.0,    1.0748, 0, 0, 0, 0, 0, 0, 0, 0
"BUSMVMAI870", 12.505, 1,    7759.72,  -31.0,    1.0748, 0, 0, 0, 0, 0, 0, 0, 0
"BUSMVMAI39", 12.505, 1,    7760.67,  -31.0,    1.0749, 2,    7716.75, -151.0,    1.0688, 3,    7705.18,   88.4,    1.0672
"BUSMVMAI40", 12.505, 1,    7760.85,  -31.0,    1.0749, 2,    7715.69, -151.0,    1.0687, 3,    7704.76,   88.4,    1.0671
"BUSMVMAI697", 12.505, 1,    7760.69,  -31.0,    1.0749, 2,    7716.76, -151.0,    1.0688, 3,    7705.09,   88.4,    1.0672
"BUSMVMAI41", 12.505, 1,    7761.08,  -31.0,    1.0749, 2,    7714.48, -151.0,    1.0685, 3,    7704.23,   88.4,    1.0671
"BUSMVMAI42", 12.505, 1,    7761.09,  -31.0,    1.0749, 2,    7714.47, -151.0,    1.0685, 3,    7704.22,   88.4,    1.0671
"BUSMVMAI48", 12.505, 1,    7761.27,  -31.0,     1.075, 2,    7713.46, -151.0,    1.0683, 3,    7703.81,   88.4,     1.067
"BUSMVMAI303", 12.505, 1,    7761.18,  -31.0,     1.075, 2,    7713.97, -151.0,    1.0684, 3,    7704.02,   88.4,     1.067
"BUSMVMAI45", 12.505, 1,     7761.1,  -31.0,    1.0749, 2,    7714.47, -151.0,    1.0685, 3,    7704.21,   88.4,    1.0671
"BUSMVMAI701", 12.505, 1,     7761.1,  -31.0,    1.0749, 2,    7714.47, -151.0,    1.0685, 3,    7704.21,   88.4,    1.0671
"BUSMVMAI47", 12.505, 1,    7758.67,  -30.9,    1.0746, 2,    7735.64, -150.9,    1.0714, 3,     7716.6,   88.7,    1.0688
"BUSMVMAI179", 12.505, 1,    7758.64,  -30.9,    1.0746, 2,    7735.45, -150.9,    1.0714, 3,    7716.39,   88.7,    1.0688
"BUSMVMAI160", 12.505, 1,    7758.77,  -30.9,    1.0746, 2,    7736.51, -150.9,    1.0715, 3,    7717.63,   88.7,    1.0689
"BUSMVMAI1103", 12.505, 1,    7761.23,  -31.0,     1.075, 0, 0, 0, 0, 0, 0, 0, 0
"BUSMVMAI259", 12.505, 1,    7761.39,  -31.0,     1.075, 2,    7712.94, -151.0,    1.0683, 3,    7703.61,   88.3,     1.067
"BUSMVMAI304", 12.505, 1,    7761.27,  -31.0,     1.075, 2,    7713.46, -151.0,    1.0683, 3,    7703.81,   88.4,     1.067
"BUSMVMAI702", 12.505, 1,    7759.17,  -30.9,    1.0747, 2,    7724.11, -150.9,    1.0698, 3,    7708.62,   88.5,    1.0677
"BUSMVMAI58", 12.505, 1,    7756.98,  -30.9,    1.0744, 2,     7732.3, -150.9,     1.071, 3,    7712.19,   88.6,    1.0682
"BUSMVMAI57", 12.505, 1,    7756.09,  -30.9,    1.0743, 2,    7732.32, -150.9,     1.071, 3,    7711.48,   88.6,    1.0681
"BUSMVMAI60", 12.505, 1,    7755.71,  -30.9,    1.0742, 2,    7732.33, -150.9,     1.071, 3,    7711.19,   88.6,     1.068
"BUSMVMAI703", 12.505, 1,    7756.09,  -30.9,    1.0743, 2,    7732.32, -150.9,     1.071, 3,    7711.47,   88.6,    1.0681
"BUSMVMAI123", 12.505, 1,    7757.19,  -30.9,    1.0744, 2,    7732.29, -150.9,     1.071, 3,    7712.37,   88.6,    1.0682
"BUSMVMAI59", 12.505, 1,    7755.19,  -30.9,    1.0741, 2,    7732.37, -150.9,     1.071, 3,    7710.88,   88.6,     1.068
"BUSMVMAI61", 12.505, 1,    7754.31,  -31.0,     1.074, 2,    7732.43, -150.9,     1.071, 3,    7710.35,   88.6,    1.0679
"BUSMVMAI63", 12.505, 1,    7755.74,  -30.9,    1.0742, 2,    7732.32, -150.9,     1.071, 3,    7711.15,   88.6,     1.068
"BUSMVMAI874", 12.505, 3,    7711.19,   88.6,     1.068, 0, 0, 0, 0, 0, 0, 0, 0
"BUSMVMAI62", 12.505, 1,    7753.42,  -31.0,    1.0739, 2,    7732.47, -150.9,     1.071, 3,    7709.81,   88.6,    1.0678
"BUSMVMAI64", 12.505, 1,    7752.45,  -31.0,    1.0737, 2,    7732.54, -150.9,     1.071, 3,     7709.4,   88.6,    1.0678
"BUSMVMAI942", 12.505, 3,    7709.81,   88.6,    1.0678, 0, 0, 0, 0, 0, 0, 0, 0
"BUSMVMAI873", 12.505, 3,     7709.8,   88.6,    1.0678, 0, 0, 0, 0, 0, 0, 0, 0
"BUSMVMAI872", 12.505, 3,    7709.61,   88.6,    1.0678, 0, 0, 0, 0, 0, 0, 0, 0
"BUSMVMAI880", 12.505, 3,    7709.61,   88.6,    1.0678, 0, 0, 0, 0, 0, 0, 0, 0
"BUSMVMAI945", 12.505, 3,    7711.15,   88.6,     1.068, 0, 0, 0, 0, 0, 0, 0, 0
"BUSMVMAI65", 12.505, 1,    7751.45,  -31.0,    1.0736, 2,    7732.58, -150.9,     1.071, 3,    7708.95,   88.6,    1.0677
"BUSMVMAI66", 12.505, 1,    7750.43,  -31.0,    1.0735, 2,    7732.61, -150.9,     1.071, 3,    7708.49,   88.6,    1.0677
"BUSMVMAI67", 12.505, 1,    7749.33,  -31.0,    1.0733, 2,    7732.65, -150.9,     1.071, 3,       7708,   88.6,    1.0676
"BUSMVMAI878", 12.505, 1,    7749.27,  -31.0,    1.0733, 0, 0, 0, 0, 0, 0, 0, 0
"BUSMVMAI68", 12.505, 1,    7748.52,  -31.0,    1.0732, 2,    7732.65, -150.9,     1.071, 3,    7707.64,   88.6,    1.0675
"BUSMVMAI706", 12.505, 1,    7749.33,  -31.0,    1.0733, 2,    7732.65, -150.9,     1.071, 3,       7708,   88.6,    1.0676
"BUSMVMAI876", 12.505, 3,    7711.14,   88.6,     1.068, 0, 0, 0, 0, 0, 0, 0, 0
"BUSMVMAI875", 12.505, 3,    7710.99,   88.6,     1.068, 0, 0, 0, 0, 0, 0, 0, 0
"BUSMVMAI877", 12.505, 3,    7710.94,   88.6,     1.068, 0, 0, 0, 0, 0, 0, 0, 0
"BUSMVMAI883", 12.505, 3,    7710.83,   88.6,     1.068, 0, 0, 0, 0, 0, 0, 0, 0
"BUSMVMAI884", 12.505, 3,    7710.93,   88.6,     1.068, 0, 0, 0, 0, 0, 0, 0, 0
"BUSMVMAI886", 12.505, 3,    7710.94,   88.6,     1.068, 0, 0, 0, 0, 0, 0, 0, 0
"BUSMVMAI885", 12.505, 1,    7749.18,  -31.0,    1.0733, 0, 0, 0, 0, 0, 0, 0, 0
"BUSMVMAI879", 12.505, 3,    7709.34,   88.6,    1.0678, 0, 0, 0, 0, 0, 0, 0, 0
"BUSMVMAI881", 12.505, 3,     7709.3,   88.6,    1.0678, 0, 0, 0, 0, 0, 0, 0, 0
"BUSMVMAI888", 12.505, 3,    7709.29,   88.6,    1.0678, 0, 0, 0, 0, 0, 0, 0, 0
"BUSMVMAI882", 12.505, 3,    7709.28,   88.6,    1.0678, 0, 0, 0, 0, 0, 0, 0, 0
"BUSMVMAI944", 12.505, 3,    7709.27,   88.6,    1.0678, 0, 0, 0, 0, 0, 0, 0, 0
"BUSMVMAI889", 12.505, 3,    7710.73,   88.6,     1.068, 0, 0, 0, 0, 0, 0, 0, 0
"BUSMVMAI2183", 12.505, 3,    7710.93,   88.6,     1.068, 0, 0, 0, 0, 0, 0, 0, 0
"BUSMVMAI2184", 12.505, 3,    7710.93,   88.6,     1.068, 0, 0, 0, 0, 0, 0, 0, 0
"BUSMVMAI71", 12.505, 1,    7747.74,  -31.0,    1.0731, 2,    7732.64, -150.9,     1.071, 3,    7707.28,   88.6,    1.0675
"BUSMVMAI2182", 12.505, 1,    7749.18,  -31.0,    1.0733, 0, 0, 0, 0, 0, 0, 0, 0
"BUSMVMAI2185", 12.505, 1,    7749.18,  -31.0,    1.0733, 0, 0, 0, 0, 0, 0, 0, 0
"BUSMVMAI2186", 12.505, 1,    7749.13,  -31.0,    1.0733, 0, 0, 0, 0, 0, 0, 0, 0
"BUSMVMAI887", 12.505, 3,    7710.92,   88.6,     1.068, 0, 0, 0, 0, 0, 0, 0, 0
"BUSMVMAI892", 12.505, 3,    7710.91,   88.6,     1.068, 0, 0, 0, 0, 0, 0, 0, 0
"BUSMVMAI897", 12.505, 3,    7709.24,   88.6,    1.0678, 0, 0, 0, 0, 0, 0, 0, 0
"BUSMVMAI890", 12.505, 3,    7710.64,   88.6,     1.068, 0, 0, 0, 0, 0, 0, 0, 0
"BUSMVMAI891", 12.505, 3,    7710.59,   88.6,    1.0679, 0, 0, 0, 0, 0, 0, 0, 0
"BUSMVMAI896", 12.505, 3,    7710.57,   88.6,    1.0679, 0, 0, 0, 0, 0, 0, 0, 0
"BUSMVMAI893", 12.505, 3,     7710.9,   88.6,     1.068, 0, 0, 0, 0, 0, 0, 0, 0
"BUSMVMAI894", 12.505, 3,    7710.89,   88.6,     1.068, 0, 0, 0, 0, 0, 0, 0, 0
"BUSMVMAI895", 12.505, 3,    7710.89,   88.6,     1.068, 0, 0, 0, 0, 0, 0, 0, 0
"BUSMVMAI898", 12.505, 3,    7710.89,   88.6,     1.068, 0, 0, 0, 0, 0, 0, 0, 0
"BUSMVMAI70", 12.505, 1,    7749.33,  -31.0,    1.0733, 2,    7732.65, -150.9,     1.071, 3,    7707.98,   88.6,    1.0676
"BUSMVMAI69", 12.505, 1,    7749.33,  -31.0,    1.0733, 2,    7732.65, -150.9,     1.071, 3,    7707.98,   88.6,    1.0676
"BUSMVMAI708", 12.505, 1,    7749.33,  -31.0,    1.0733, 2,    7732.65, -150.9,     1.071, 3,    7707.98,   88.6,    1.0676
"BUSMVMAI72", 12.505, 1,    7746.71,  -31.0,     1.073, 2,    7732.62, -150.9,     1.071, 3,    7706.82,   88.6,    1.0674
"BUSMVMAI73", 12.505, 1,    7745.72,  -31.0,    1.0728, 2,    7732.62, -150.9,     1.071, 3,    7706.43,   88.6,    1.0674
"BUSMVMAI134", 12.505, 1,    7746.71,  -31.0,     1.073, 2,    7732.62, -150.9,     1.071, 3,    7706.82,   88.6,    1.0674
"BUSMVMAI900", 12.505, 3,    7709.18,   88.6,    1.0678, 0, 0, 0, 0, 0, 0, 0, 0
"BUSMVMAI904", 12.505, 3,    7710.88,   88.6,     1.068, 0, 0, 0, 0, 0, 0, 0, 0
"BUSMVMAI75", 12.505, 1,    7745.24,  -31.0,    1.0727, 2,    7732.66, -150.9,     1.071, 3,    7706.24,   88.6,    1.0673
"BUSMVMAI718", 12.505, 1,    7745.72,  -31.0,    1.0728, 2,    7732.62, -150.9,     1.071, 3,    7706.43,   88.6,    1.0674
"BUSMVMAI899", 12.505, 3,    7709.18,   88.6,    1.0678, 0, 0, 0, 0, 0, 0, 0, 0
"BUSMVMAI902", 12.505, 3,    7709.16,   88.6,    1.0678, 0, 0, 0, 0, 0, 0, 0, 0
"BUSMVMAI901", 12.505, 3,    7709.14,   88.6,    1.0677, 0, 0, 0, 0, 0, 0, 0, 0
"BUSMVMAI903", 12.505, 3,     7709.1,   88.6,    1.0677, 0, 0, 0, 0, 0, 0, 0, 0
"BUSMVMAI905", 12.505, 3,    7709.07,   88.6,    1.0677, 0, 0, 0, 0, 0, 0, 0, 0
"BUSMVMAI907", 12.505, 3,     7709.1,   88.6,    1.0677, 0, 0, 0, 0, 0, 0, 0, 0
"BUSMVMAI906", 12.505, 3,    7709.06,   88.6,    1.0677, 0, 0, 0, 0, 0, 0, 0, 0
"BUSMVMAI946", 12.505, 3,    7709.06,   88.6,    1.0677, 0, 0, 0, 0, 0, 0, 0, 0
"BUSMVMAI74", 12.505, 1,    7745.24,  -31.0,    1.0727, 2,    7732.66, -150.9,     1.071, 3,    7706.24,   88.6,    1.0673
"BUSMVMAI76", 12.505, 1,    7745.16,  -31.0,    1.0727, 2,    7732.72, -150.9,     1.071, 3,     7706.2,   88.6,    1.0673
"BUSMVMAI77", 12.505, 1,    7744.97,  -31.0,    1.0727, 2,    7732.65, -150.9,     1.071, 3,    7706.13,   88.6,    1.0673
"BUSMVMAI79", 12.505, 1,    7745.15,  -31.0,    1.0727, 2,    7732.73, -150.9,     1.071, 3,    7706.19,   88.6,    1.0673
"BUSMVMAI81", 12.505, 1,    7744.95,  -31.0,    1.0727, 2,    7732.59, -150.9,     1.071, 3,    7706.15,   88.6,    1.0673
"BUSMVMAI91", 12.505, 1,    7744.26,  -31.0,    1.0726, 2,    7732.66, -150.9,     1.071, 3,    7705.82,   88.6,    1.0673
"BUSMVMAI78", 12.505, 1,       7745,  -31.0,    1.0727, 2,    7732.84, -150.9,     1.071, 3,    7706.12,   88.6,    1.0673
"BUSMVMAI80", 12.505, 1,    7744.84,  -31.0,    1.0727, 2,    7732.95, -150.9,     1.071, 3,    7706.04,   88.6,    1.0673
"BUSMVMAI908", 12.505, 1,    7744.77,  -31.0,    1.0727, 0, 0, 0, 0, 0, 0, 0, 0
"BUSMVMAI89", 12.505, 1,    7744.78,  -31.0,    1.0727, 2,    7732.99, -150.9,    1.0711, 3,       7706,   88.6,    1.0673
"BUSMVMAI949", 12.505, 3,     7709.1,   88.6,    1.0677, 0, 0, 0, 0, 0, 0, 0, 0
"BUSMVMAI82", 12.505, 1,    7744.94,  -31.0,    1.0727, 2,    7732.54, -150.9,     1.071, 3,    7706.17,   88.6,    1.0673
"BUSMVMAI83", 12.505, 1,    7744.94,  -31.0,    1.0727, 2,    7732.53, -150.9,     1.071, 3,    7706.16,   88.6,    1.0673
"BUSMVMAI86", 12.505, 1,    7744.94,  -31.0,    1.0727, 2,    7732.52, -150.9,     1.071, 3,    7706.16,   88.6,    1.0673
"BUSMVMAI85", 12.505, 1,     7745.7,  -31.0,    1.0728, 2,    7732.55, -150.9,     1.071, 3,     7706.4,   88.6,    1.0674
"BUSMVMAI84", 12.505, 1,    7745.66,  -31.0,    1.0728, 2,    7732.48, -150.9,     1.071, 3,     7706.4,   88.6,    1.0674
"BUSMVMAI93", 12.505, 1,    7745.63,  -31.0,    1.0728, 2,    7732.44, -150.9,     1.071, 3,     7706.4,   88.6,    1.0674
"BUSMVMAI2198", 12.505, 2,    7732.48, -150.9,     1.071, 0, 0, 0, 0, 0, 0, 0, 0
"BUSMVMAI709", 12.505, 1,    7745.72,  -31.0,    1.0728, 2,    7732.62, -150.9,     1.071, 3,    7706.43,   88.6,    1.0674
"BUSMVMAI88", 12.505, 1,    7744.95,  -31.0,    1.0727, 2,     7732.5, -150.9,     1.071, 3,    7706.15,   88.6,    1.0673
"BUSMVMAI87", 12.505, 1,    7744.95,  -31.0,    1.0727, 2,    7732.49, -150.9,     1.071, 3,    7706.14,   88.6,    1.0673
"BUSMVMAI99", 12.505, 1,    7744.95,  -31.0,    1.0727, 2,    7732.48, -150.9,     1.071, 3,    7706.14,   88.6,    1.0673
"BUSMVMAI722", 12.505, 1,    7744.95,  -31.0,    1.0727, 2,    7732.49, -150.9,     1.071, 3,    7706.14,   88.6,    1.0673
"BUSMVMAI909", 12.505, 1,     7744.7,  -31.0,    1.0727, 0, 0, 0, 0, 0, 0, 0, 0
"BUSMVMAI90", 12.505, 1,    7744.75,  -31.0,    1.0727, 2,    7733.02, -150.9,    1.0711, 3,    7705.96,   88.6,    1.0673
"BUSMVMAI102", 12.505, 1,     7744.7,  -31.0,    1.0727, 2,    7733.06, -150.9,    1.0711, 3,    7705.91,   88.6,    1.0673
"BUSMVMAI92", 12.505, 1,    7743.64,  -31.0,    1.0725, 2,    7732.68, -150.9,     1.071, 3,    7705.56,   88.6,    1.0673
"BUSMVMAI132", 12.505, 1,    7744.26,  -31.0,    1.0726, 2,    7732.66, -150.9,     1.071, 3,    7705.82,   88.6,    1.0673
"BUSMVMAI98", 12.505, 1,    7743.64,  -31.0,    1.0725, 2,    7732.68, -150.9,     1.071, 3,    7705.55,   88.6,    1.0673
"BUSMVMAI100", 12.505, 1,    7742.86,  -31.0,    1.0724, 2,    7732.75, -150.9,     1.071, 3,     7705.2,   88.6,    1.0672
"BUSMVMAI723", 12.505, 1,    7743.64,  -31.0,    1.0725, 2,    7732.68, -150.9,     1.071, 3,    7705.56,   88.6,    1.0673
"BUSMVMAI96", 12.505, 1,    7745.61,  -31.0,    1.0728, 2,     7732.4, -150.9,     1.071, 3,    7706.39,   88.6,    1.0674
"BUSMVMAI916", 12.505, 1,    7745.63,  -31.0,    1.0728, 0, 0, 0, 0, 0, 0, 0, 0
"BUSMVMAI95", 12.505, 1,    7743.64,  -31.0,    1.0725, 2,    7732.63, -150.9,     1.071, 3,    7705.56,   88.6,    1.0673
"BUSMVMAI94", 12.505, 1,    7743.63,  -31.0,    1.0725, 2,    7732.59, -150.9,     1.071, 3,    7705.58,   88.6,    1.0673
"BUSMVMAI112", 12.505, 1,    7743.63,  -31.0,    1.0725, 2,    7732.59, -150.9,     1.071, 3,    7705.57,   88.6,    1.0673
"BUSMVMAI126", 12.505, 1,    7743.64,  -31.0,    1.0725, 2,    7732.64, -150.9,     1.071, 3,    7705.56,   88.6,    1.0673
"BUSMVMAI97", 12.505, 1,    7745.58,  -31.0,    1.0728, 2,    7732.35, -150.9,     1.071, 3,    7706.39,   88.6,    1.0674
"BUSMVMAI711", 12.505, 1,    7745.61,  -31.0,    1.0728, 2,    7732.41, -150.9,     1.071, 3,    7706.39,   88.6,    1.0674
"BUSMVMAI915", 12.505, 1,    7745.58,  -31.0,    1.0728, 0, 0, 0, 0, 0, 0, 0, 0
...
"BUSLVMAI1", 0.20785, 1,    128.167,   88.6,    1.0681, 2,    128.183,  -91.4,    1.0682, 0, 0, 0, 0
"BUSLVMAI2", 0.20785, 1,    128.048,   88.5,    1.0671, 2,    128.061,  -91.5,    1.0672, 0, 0, 0, 0
"BUSLVMAI3", 0.20785, 1,    128.147,   88.6,    1.0679, 2,    128.163,  -91.4,     1.068, 0, 0, 0, 0
"BUSLVMAI4", 0.20785, 1,    128.615,  -31.1,    1.0718, 2,    128.678,  148.9,    1.0723, 0, 0, 0, 0
"BUSLVMAI5", 0.20785, 1,    128.097, -151.0,    1.0675, 2,     128.14,   29.0,    1.0678, 0, 0, 0, 0
"BUSLVMAI6", 0.20785, 1,     128.07,   88.5,    1.0672, 2,    128.085,  -91.5,    1.0674, 0, 0, 0, 0
"BUSLVMAI7", 0.20785, 1,    128.172,   88.6,    1.0681, 2,    128.187,  -91.4,    1.0682, 0, 0, 0, 0
"BUSLVMAI8", 0.20785, 1,    127.875,   88.5,    1.0656, 2,    127.894,  -91.5,    1.0658, 0, 0, 0, 0
"BUSLVMAI9", 0.20785, 1,     127.81,   88.3,    1.0651, 2,    127.823,  -91.7,    1.0652, 0, 0, 0, 0
"BUSLVMAI10", 0.20785, 1,    127.818,   88.3,    1.0651, 2,    127.831,  -91.7,    1.0653, 0, 0, 0, 0
"BUSLVMAI11", 0.20785, 1,    128.428, -150.9,    1.0702, 2,    128.441,   29.1,    1.0703, 0, 0, 0, 0
"BUSLVMAI12", 0.20785, 1,    128.406, -150.9,      1.07, 2,    128.421,   29.1,    1.0702, 0, 0, 0, 0
"BUSLVMAI13", 0.20785, 1,    128.896,  -30.9,    1.0741, 2,    128.911,  149.1,    1.0743, 0, 0, 0, 0
"BUSLVMAI14", 0.20785, 1,    128.904,  -31.0,    1.0742, 2,     128.92,  149.0,    1.0743, 0, 0, 0, 0
"BUSLVMAI15", 0.20785, 1,    128.888,  -30.9,    1.0741, 2,    128.902,  149.1,    1.0742, 0, 0, 0, 0
"BUSLVMAI16", 0.20785, 1,    128.151,   88.6,    1.0679, 2,    128.169,  -91.4,    1.0681, 0, 0, 0, 0
"BUSLVMAI17", 0.20785, 1,    127.657,   88.3,    1.0638, 2,    127.687,  -91.7,    1.0641, 0, 0, 0, 0
"BUSLVMAI18", 0.20785, 1,    128.102,   88.5,    1.0675, 2,    128.118,  -91.5,    1.0676, 0, 0, 0, 0
"BUSLVMAI19", 0.20785, 1,    128.113,   88.6,    1.0676, 2,    128.126,  -91.4,    1.0677, 0, 0, 0, 0
"BUSLVMAI20", 0.20785, 1,    128.217, -151.0,    1.0685, 2,    128.241,   29.0,    1.0687, 0, 0, 0, 0
"BUSLVMAI21", 0.20785, 1,    128.167,   88.6,    1.0681, 2,    128.183,  -91.4,    1.0682, 0, 0, 0, 0
"BUSLVMAI22", 0.20785, 1,    128.843,  -31.0,    1.0737, 2,      128.9,  149.0,    1.0742, 0, 0, 0, 0
"BUSLVMAI23", 0.20785, 1,    128.139,   88.6,    1.0678, 2,    128.154,  -91.4,     1.068, 0, 0, 0, 0
"BUSLVMAI24", 0.20785, 1,    128.145,   88.6,    1.0679, 2,     128.16,  -91.4,     1.068, 0, 0, 0, 0
"BUSLVMAI25", 0.20785, 1,    128.114,   88.6,    1.0676, 2,     128.13,  -91.4,    1.0677, 0, 0, 0, 0
"BUSLVMAI26", 0.20785, 1,    128.385, -150.9,    1.0699, 2,    128.401,   29.1,      1.07, 0, 0, 0, 0
"BUSLVMAI27", 0.20785, 1,    128.437, -150.9,    1.0703, 2,    128.453,   29.1,    1.0704, 0, 0, 0, 0
"BUSLVMAI28", 0.20785, 1,    128.102,   88.5,    1.0675, 2,    128.118,  -91.5,    1.0677, 0, 0, 0, 0
"BUSLVMAI29", 0.20785, 1,    127.909,   88.3,    1.0659, 2,    127.925,  -91.7,     1.066, 0, 0, 0, 0
"BUSLVMAI30", 0.20785, 1,    128.286, -151.0,     1.069, 2,      128.3,   29.0,    1.0692, 0, 0, 0, 0
"BUSLVMAI31", 0.20785, 1,    128.149,   88.6,    1.0679, 2,    128.165,  -91.4,     1.068, 0, 0, 0, 0
"BUSLVMAI32", 0.20785, 1,    128.672,  -31.0,    1.0723, 2,    128.685,  149.0,    1.0724, 0, 0, 0, 0
"BUSLVMAI33", 0.20785, 1,    128.089,   88.5,    1.0674, 2,    128.103,  -91.5,    1.0675, 0, 0, 0, 0
"BUSLVMAI34", 0.20785, 1,    127.075,   88.4,     1.059, 2,    127.154,  -91.6,    1.0596, 0, 0, 0, 0
"BUSLVMAI35", 0.20785, 1,    128.097,   88.6,    1.0675, 2,    128.111,  -91.4,    1.0676, 0, 0, 0, 0
"BUSLVMAI36", 0.20785, 1,    128.096,   88.6,    1.0675, 2,     128.11,  -91.4,    1.0676, 0, 0, 0, 0
"BUSLVMAI37", 0.20785, 1,    128.092,   88.6,    1.0674, 2,    128.108,  -91.4,    1.0676, 0, 0, 0, 0
"BUSLVMAI38", 0.20785, 1,     126.34, -151.4,    1.0528, 2,    126.357,   28.6,     1.053, 0, 0, 0, 0
"BUSLVMAI39", 0.20785, 1,    128.297, -151.0,    1.0691, 2,     128.31,   29.0,    1.0692, 0, 0, 0, 0
"BUSLVMAI40", 0.20785, 1,    127.869,   88.5,    1.0656, 2,     127.91,  -91.5,    1.0659, 0, 0, 0, 0
"BUSLVMAI41", 0.20785, 1,    128.685,  -31.0,    1.0724, 2,    128.701,  149.0,    1.0725, 0, 0, 0, 0
"BUSLVMAI42", 0.20785, 1,    128.723,  -31.0,    1.0727, 2,    128.739,  149.0,    1.0728, 0, 0, 0, 0
"BUSLVMAI43", 0.20785, 1,    128.705,  -31.0,    1.0725, 2,    128.721,  149.0,    1.0727, 0, 0, 0, 0
"BUSLVMAI44", 0.20785, 1,    127.968,   88.6,    1.0664, 2,    127.998,  -91.4,    1.0666, 0, 0, 0, 0
"BUSLVMAI45", 0.20785, 1,    127.969,   88.6,    1.0664, 2,    127.983,  -91.4,    1.0665, 0, 0, 0, 0
"BUSLVMAI46", 0.20785, 1,    128.044,   88.6,     1.067, 2,     128.06,  -91.4,    1.0672, 0, 0, 0, 0
"BUSLVMAI47", 0.20785, 1,    128.099,   88.6,    1.0675, 2,    128.113,  -91.4,    1.0676, 0, 0, 0, 0
"BUSLVMAI48", 0.20785, 1,    127.816,   88.5,    1.0651, 2,    127.833,  -91.5,    1.0653, 0, 0, 0, 0
"BUSLVMAI49", 0.20785, 1,    128.696,  -31.0,    1.0725, 2,    128.712,  149.0,    1.0726, 0, 0, 0, 0
"BUSLVMAI50", 0.20785, 1,    127.561, -151.2,     1.063, 2,    127.671,   28.8,    1.0639, 0, 0, 0, 0
"BUSLVMAI51", 0.20785, 1,    128.365,  -31.1,    1.0697, 2,    128.381,  148.9,    1.0698, 0, 0, 0, 0
"BUSLVMAI52", 0.20785, 1,    128.106,   88.6,    1.0675, 2,    128.119,  -91.4,    1.0677, 0, 0, 0, 0
"BUSLVMAI53", 0.20785, 1,    128.091,   88.6,    1.0674, 2,    128.107,  -91.4,    1.0676, 0, 0, 0, 0
"BUSLVMAI54", 0.20785, 1,    127.676,   88.5,     1.064, 2,    127.692,  -91.5,    1.0641, 0, 0, 0, 0
"BUSLVMAI55", 0.20785, 1,    128.713,  -31.0,    1.0726, 2,    128.729,  149.0,    1.0727, 0, 0, 0, 0
"BUSLVMAI56", 0.20785, 1,    127.819,   88.5,    1.0652, 2,    127.832,  -91.5,    1.0653, 0, 0, 0, 0
"BUSLVMAI57", 0.20785, 1,    128.031,   88.6,    1.0669, 2,    128.046,  -91.4,    1.0671, 0, 0, 0, 0
"BUSLVMAI58", 0.20785, 1,    128.104,   88.6,    1.0675, 2,    128.118,  -91.4,    1.0677, 0, 0, 0, 0
"BUSLVMAI59", 0.20785, 1,    128.696,  -31.0,    1.0725, 2,    128.712,  149.0,    1.0726, 0, 0, 0, 0
"BUSLVMAI60", 0.20785, 1,    128.686,  -31.0,    1.0724, 2,    128.699,  149.0,    1.0725, 0, 0, 0, 0
"BUSLVMAI61", 0.20785, 1,    128.394,  -31.1,      1.07, 2,     128.41,  148.9,    1.0701, 0, 0, 0, 0
"BUSLVMAI62", 0.20785, 1,     128.39, -151.0,    1.0699, 2,    128.404,   29.0,      1.07, 0, 0, 0, 0
"BUSLVMAI63", 0.20785, 1,    128.448,  -31.1,    1.0704, 2,    128.469,  148.9,    1.0706, 0, 0, 0, 0
"BUSLVMAI64", 0.20785, 1,    128.381, -151.0,    1.0698, 2,    128.394,   29.0,      1.07, 0, 0, 0, 0
"BUSLVMAI65", 0.20785, 1,    128.686,  -31.0,    1.0724, 2,    128.701,  149.0,    1.0725, 0, 0, 0, 0
"BUSLVMAI66", 0.20785, 1,    128.096,   88.6,    1.0675, 2,    128.111,  -91.4,    1.0676, 0, 0, 0, 0
"BUSLVMAI67", 0.20785, 1,    128.452,  -31.1,    1.0704, 2,    128.468,  148.9,    1.0706, 0, 0, 0, 0
"BUSLVMAI68", 0.20785, 1,    128.443,  -31.1,    1.0704, 2,    128.456,  148.9,    1.0705, 0, 0, 0, 0
"BUSLVMAI69", 0.20785, 1,      128.1,   88.6,    1.0675, 2,    128.113,  -91.4,    1.0676, 0, 0, 0, 0
"BUSLVMAI70", 0.20785, 1,    127.865,   88.5,    1.0655, 2,    127.889,  -91.5,    1.0657, 0, 0, 0, 0
"BUSLVMAI71", 0.20785, 1,    128.112,  -31.3,    1.0676, 2,    128.127,  148.7,    1.0677, 0, 0, 0, 0
"BUSLVMAI72", 0.20785, 1,    128.646,  -31.0,     1.072, 2,    128.659,  149.0,    1.0722, 0, 0, 0, 0
"BUSLVMAI73", 0.20785, 1,    128.541,  -31.1,    1.0712, 2,    128.554,  148.9,    1.0713, 0, 0, 0, 0
"BUSLVMAI74", 0.20785, 1,    128.696,  -31.0,    1.0725, 2,    128.711,  149.0,    1.0726, 0, 0, 0, 0
"BUSLVMAI75", 0.20785, 1,    128.228, -151.0,    1.0686, 2,    128.242,   29.0,    1.0687, 0, 0, 0, 0
"BUSLVMAI76", 0.20785, 1,    128.097,   88.6,    1.0675, 2,     128.11,  -91.4,    1.0676, 0, 0, 0, 0
"BUSLVMAI77", 0.20785, 1,    128.441,  -31.1,    1.0703, 2,    128.456,  148.9,    1.0705, 0, 0, 0, 0
"BUSLVMAI78", 0.20785, 1,    128.649,  -31.0,    1.0721, 2,    128.662,  149.0,    1.0722, 0, 0, 0, 0
"BUSLVMAI79", 0.20785, 1,    128.037,   88.6,     1.067, 2,    128.051,  -91.4,    1.0671, 0, 0, 0, 0
"BUSLVMAI80", 0.20785, 1,    127.518,   88.3,    1.0626, 2,    127.542,  -91.7,    1.0628, 0, 0, 0, 0
"BUSLVMAI81", 0.20785, 1,    128.096,   88.6,    1.0675, 2,     128.11,  -91.4,    1.0676, 0, 0, 0, 0
"BUSLVMAI82", 0.20785, 1,    128.036,   88.6,     1.067, 2,    128.052,  -91.4,    1.0671, 0, 0, 0, 0
"BUSLVMAI83", 0.20785, 1,    128.492,  -31.1,    1.0708, 2,    128.512,  148.9,    1.0709, 0, 0, 0, 0
"BUSLVMAI84", 0.20785, 1,    127.883,   88.5,    1.0657, 2,    127.897,  -91.5,    1.0658, 0, 0, 0, 0
"BUSLVMAI85", 0.20785, 1,    128.442, -150.9,    1.0703, 2,    128.458,   29.1,    1.0705, 0, 0, 0, 0
"BUSLVMAI86", 0.20785, 1,     128.56,  -31.1,    1.0713, 2,    128.581,  148.9,    1.0715, 0, 0, 0, 0
"BUSLVMAI87", 0.20785, 1,    128.702,  -31.0,    1.0725, 2,    128.734,  149.0,    1.0728, 0, 0, 0, 0
"BUSLVMAI88", 0.20785, 1,    128.127,   88.6,    1.0677, 2,     128.14,  -91.4,    1.0678, 0, 0, 0, 0
"BUSLVMAI89", 0.20785, 1,    128.097,   88.6,    1.0675, 2,     128.11,  -91.4,    1.0676, 0, 0, 0, 0
"BUSLVMAI90", 0.20785, 1,    127.838,   88.5,    1.0653, 2,    127.854,  -91.5,    1.0655, 0, 0, 0, 0
"BUSLVMAI91", 0.20785, 1,    128.097,   88.6,    1.0675, 2,    128.113,  -91.4,    1.0676, 0, 0, 0, 0
"BUSLVMAI92", 0.20785, 1,    128.487,  -31.1,    1.0707, 2,    128.502,  148.9,    1.0708, 0, 0, 0, 0
"BUSLVMAI93", 0.20785, 1,    127.954,   88.6,    1.0663, 2,     127.97,  -91.4,    1.0664, 0, 0, 0, 0
"BUSLVMAI94", 0.20785, 1,    127.885,   88.5,    1.0657, 2,    127.899,  -91.5,    1.0658, 0, 0, 0, 0
"BUSLVMAI95", 0.20785, 1,     128.03,   88.6,    1.0669, 2,    128.046,  -91.4,     1.067, 0, 0, 0, 0
"BUSLVMAI96", 0.20785, 1,    128.086,   88.6,    1.0674, 2,      128.1,  -91.4,    1.0675, 0, 0, 0, 0
"BUSLVMAI97", 0.20785, 1,    128.478, -150.9,    1.0706, 2,    128.494,   29.1,    1.0708, 0, 0, 0, 0
"BUSLVMAI98", 0.20785, 1,    128.478, -150.9,    1.0706, 2,    128.494,   29.1,    1.0708, 0, 0, 0, 0
"BUSLVMAI99", 0.20785, 1,     128.09,   88.6,    1.0674, 2,    128.104,  -91.4,    1.0675, 0, 0, 0, 0
"BUSLVMAI100", 0.20785, 1,     128.08,   88.6,    1.0673, 2,    128.094,  -91.4,    1.0675, 0, 0, 0, 0
"BUSLVMAI101", 0.20785, 1,    128.028,   88.6,    1.0669, 2,    128.044,  -91.4,     1.067, 0, 0, 0, 0
"BUSLVMAI102", 0.20785, 1,    128.094,   88.6,    1.0674, 2,     128.11,  -91.4,    1.0676, 0, 0, 0, 0
"BUSLVMAI103", 0.20785, 1,    128.015,   88.6,    1.0668, 2,     128.03,  -91.4,    1.0669, 0, 0, 0, 0
"BUSLVMAI104", 0.20785, 1,    127.999,   88.6,    1.0667, 2,    128.013,  -91.4,    1.0668, 0, 0, 0, 0
"BUSLVMAI105", 0.20785, 1,    127.912,   88.6,    1.0659, 2,    127.926,  -91.4,    1.0661, 0, 0, 0, 0
"BUSLVMAI106", 0.20785, 1,    128.671,  -31.0,    1.0723, 2,    128.684,  149.0,    1.0724, 0, 0, 0, 0
"BUSLVMAI107", 0.20785, 1,    128.099,   88.6,    1.0675, 2,    128.113,  -91.4,    1.0676, 0, 0, 0, 0
"BUSLVMAI108", 0.20785, 1,    128.042,   88.6,     1.067, 2,    128.056,  -91.4,    1.0671, 0, 0, 0, 0
"BUSLVMAI109", 0.20785, 1,    128.219,  -31.2,    1.0685, 2,    128.286,  148.8,     1.069, 0, 0, 0, 0
"BUSLVMAI110", 0.20785, 1,    128.441,  -31.1,    1.0703, 2,    128.457,  148.9,    1.0705, 0, 0, 0, 0
"BUSLVMAI111", 0.20785, 1,    128.522,  -31.1,     1.071, 2,    128.538,  148.9,    1.0712, 0, 0, 0, 0
"BUSLVMAI112", 0.20785, 1,    128.608,  -31.0,    1.0717, 2,    128.625,  149.0,    1.0719, 0, 0, 0, 0
"BUSLVMAI113", 0.20785, 1,    128.438, -150.9,    1.0703, 2,    128.454,   29.1,    1.0704, 0, 0, 0, 0
"BUSLVMAI114", 0.20785, 1,    127.763,  -31.3,    1.0647, 2,    127.779,  148.6,    1.0648, 0, 0, 0, 0
"BUSLVMAI115", 0.20785, 1,    128.525,  -31.1,     1.071, 2,    128.538,  148.9,    1.0711, 0, 0, 0, 0
"BUSLVMAI116", 0.20785, 1,    128.008,   88.6,    1.0667, 2,    128.021,  -91.4,    1.0668, 0, 0, 0, 0
"BUSLVMAI117", 0.20785, 1,    128.313,  -31.2,    1.0693, 2,    128.335,  148.8,    1.0695, 0, 0, 0, 0
"BUSLVMAI118", 0.20785, 1,    128.335,  -31.1,    1.0695, 2,    128.351,  148.9,    1.0696, 0, 0, 0, 0
"BUSLVMAI119", 0.20785, 1,    127.837,   88.5,    1.0653, 2,     127.85,  -91.5,    1.0654, 0, 0, 0, 0
"BUSLVMAI120", 0.20785, 1,    128.523,  -31.1,     1.071, 2,    128.537,  148.9,    1.0711, 0, 0, 0, 0
"BUSLVMAI121", 0.20785, 1,      128.5, -150.9,    1.0708, 2,    128.516,   29.1,     1.071, 0, 0, 0, 0
"BUSLVMAI122", 0.20785, 1,    127.996,   88.6,    1.0666, 2,    128.012,  -91.4,    1.0668, 0, 0, 0, 0
"BUSLVMAI123", 0.20785, 1,    128.499, -150.9,    1.0708, 2,    128.514,   29.1,    1.0709, 0, 0, 0, 0
"BUSLVMAI124", 0.20785, 1,    127.627,   88.4,    1.0636, 2,    127.667,  -91.6,    1.0639, 0, 0, 0, 0
"BUSLVMAI125", 0.20785, 1,    127.672,   88.5,    1.0639, 2,    127.688,  -91.5,    1.0641, 0, 0, 0, 0
"BUSLVMAI126", 0.20785, 1,    128.504, -150.9,    1.0709, 2,    128.518,   29.1,     1.071, 0, 0, 0, 0
"BUSLVMAI127", 0.20785, 1,    128.001,   88.6,    1.0667, 2,    128.015,  -91.4,    1.0668, 0, 0, 0, 0
"BUSLVMAI128", 0.20785, 1,    127.869, -151.2,    1.0656, 2,    127.891,   28.8,    1.0658, 0, 0, 0, 0
"BUSLVMAI129", 0.20785, 1,    128.524,  -31.1,     1.071, 2,    128.537,  148.9,    1.0711, 0, 0, 0, 0
"BUSLVMAI130", 0.20785, 1,    128.629,  -31.0,    1.0719, 2,    128.644,  149.0,     1.072, 0, 0, 0, 0
"BUSLVMAI131", 0.20785, 1,     128.06,  -31.2,    1.0672, 2,    128.083,  148.8,    1.0674, 0, 0, 0, 0
"BUSLVMAI132", 0.20785, 1,    128.522,  -31.1,     1.071, 2,    128.535,  148.9,    1.0711, 0, 0, 0, 0
"BUSLVMAI133", 0.20785, 1,    128.012,   88.6,    1.0668, 2,     128.03,  -91.4,    1.0669, 0, 0, 0, 0
"BUSLVMAI134", 0.20785, 1,    127.833,   88.5,    1.0653, 2,    127.847,  -91.5,    1.0654, 0, 0, 0, 0
"BUSLVMAI135", 0.20785, 1,    127.983,   88.6,    1.0665, 2,    127.999,  -91.4,    1.0667, 0, 0, 0, 0
"BUSLVMAI136", 0.20785, 1,    128.258,  -31.2,    1.0688, 2,    128.285,  148.8,     1.069, 0, 0, 0, 0
"BUSLVMAI137", 0.20785, 1,    128.236, -151.0,    1.0686, 2,     128.25,   29.0,    1.0687, 0, 0, 0, 0
"BUSLVMAI138", 0.20785, 1,    128.352, -151.0,    1.0696, 2,    128.375,   29.0,    1.0698, 0, 0, 0, 0
"BUSLVMAI139", 0.20785, 1,    128.304, -151.0,    1.0692, 2,    128.319,   29.0,    1.0693, 0, 0, 0, 0
"BUSLVMAI140", 0.20785, 1,    128.319,  -31.1,    1.0693, 2,    128.335,  148.9,    1.0695, 0, 0, 0, 0
"BUSLVMAI141", 0.20785, 1,    128.505, -150.9,    1.0709, 2,    128.519,   29.1,     1.071, 0, 0, 0, 0
"BUSLVMAI142", 0.20785, 1,    128.244, -151.0,    1.0687, 2,    128.258,   29.0,    1.0688, 0, 0, 0, 0
"BUSLVMAI143", 0.20785, 1,    128.455, -150.9,    1.0705, 2,    128.471,   29.1,    1.0706, 0, 0, 0, 0
"BUSLVMAI144", 0.20785, 1,    127.998,   88.6,    1.0667, 2,    128.014,  -91.4,    1.0668, 0, 0, 0, 0
"BUSLVMAI145", 0.20785, 1,    128.589,  -31.0,    1.0716, 2,    128.605,  149.0,    1.0717, 0, 0, 0, 0
"BUSLVMAI146", 0.20785, 1,    128.496, -150.9,    1.0708, 2,    128.511,   29.1,    1.0709, 0, 0, 0, 0
"BUSLVMAI147", 0.20785, 1,     128.09,  -31.3,    1.0674, 2,    128.104,  148.7,    1.0675, 0, 0, 0, 0
"BUSLVMAI148", 0.20785, 1,    127.956,   88.6,    1.0663, 2,    127.972,  -91.4,    1.0664, 0, 0, 0, 0
"BUSLVMAI149", 0.20785, 1,      128.3, -151.0,    1.0692, 2,    128.313,   29.0,    1.0693, 0, 0, 0, 0
"BUSLVMAI150", 0.20785, 1,    128.216,  -31.2,    1.0685, 2,    128.237,  148.8,    1.0686, 0, 0, 0, 0
"BUSLVMAI151", 0.20785, 1,     128.01, -151.1,    1.0667, 2,    128.023,   28.9,    1.0669, 0, 0, 0, 0
"BUSLVMAI152", 0.20785, 1,    128.514,  -31.1,     1.071, 2,     128.53,  148.9,    1.0711, 0, 0, 0, 0
"BUSLVMAI153", 0.20785, 1,     127.52,   88.5,    1.0627, 2,    127.536,  -91.6,    1.0628, 0, 0, 0, 0
"BUSLVMAI154", 0.20785, 1,    128.005,   88.6,    1.0667, 2,    128.021,  -91.4,    1.0668, 0, 0, 0, 0
"BUSLVMAI155", 0.20785, 1,     128.28,  -31.2,     1.069, 2,    128.294,  148.8,    1.0691, 0, 0, 0, 0
"BUSLVMAI156", 0.20785, 1,    128.526,  -31.1,     1.071, 2,    128.539,  148.9,    1.0712, 0, 0, 0, 0
"BUSLVMAI157", 0.20785, 1,     128.09,  -31.2,    1.0674, 2,    128.106,  148.8,    1.0676, 0, 0, 0, 0
"BUSLVMAI158", 0.20785, 1,    128.468, -151.0,    1.0706, 2,    128.481,   29.0,    1.0707, 0, 0, 0, 0
"BUSLVMAI159", 0.20785, 1,    128.456, -150.9,    1.0705, 2,    128.469,   29.1,    1.0706, 0, 0, 0, 0
"BUSLVMAI160", 0.20785, 1,    128.349,  -31.1,    1.0696, 2,    128.365,  148.9,    1.0697, 0, 0, 0, 0
"BUSLVMAI161", 0.20785, 1,    128.385,  -31.1,    1.0699, 2,    128.411,  148.9,    1.0701, 0, 0, 0, 0
"BUSLVMAI162", 0.20785, 1,    128.394,  -31.1,      1.07, 2,     128.41,  148.9,    1.0701, 0, 0, 0, 0
"BUSLVMAI163", 0.20785, 1,    128.514,  -31.1,     1.071, 2,     128.53,  148.9,    1.0711, 0, 0, 0, 0
"BUSLVMAI164", 0.20785, 1,    128.654,  -31.0,    1.0721, 2,    128.667,  149.0,    1.0722, 0, 0, 0, 0
"BUSLVMAI165", 0.20785, 1,    128.103,  -31.2,    1.0675, 2,    128.146,  148.8,    1.0679, 0, 0, 0, 0
"BUSLVMAI166", 0.20785, 1,    128.378,  -31.1,    1.0698, 2,    128.404,  148.9,      1.07, 0, 0, 0, 0
"BUSLVMAI167", 0.20785, 1,    127.831,   88.5,    1.0653, 2,    127.845,  -91.5,    1.0654, 0, 0, 0, 0
"BUSLVMAI168", 0.20785, 1,     127.93,   88.6,    1.0661, 2,    127.945,  -91.4,    1.0662, 0, 0, 0, 0
"BUSLVMAI169", 0.20785, 1,    127.665,  -31.2,    1.0639, 2,    127.683,  148.8,     1.064, 0, 0, 0, 0
"BUSLVMAI170", 0.20785, 1,    128.518,  -31.1,     1.071, 2,    128.532,  148.9,    1.0711, 0, 0, 0, 0
"BUSLVMAI171", 0.20785, 1,    128.154,  -31.2,     1.068, 2,    128.233,  148.8,    1.0686, 0, 0, 0, 0
"BUSLVMAI172", 0.20785, 1,    127.778,   88.5,    1.0648, 2,    127.793,  -91.5,    1.0649, 0, 0, 0, 0
"BUSLVMAI173", 0.20785, 1,    127.995,   88.6,    1.0666, 2,    128.011,  -91.4,    1.0668, 0, 0, 0, 0
"BUSLVMAI174", 0.20785, 1,    128.325,  -31.1,    1.0694, 2,    128.349,  148.9,    1.0696, 0, 0, 0, 0
"BUSLVMAI175", 0.20785, 1,    128.283,  -31.2,     1.069, 2,    128.297,  148.8,    1.0691, 0, 0, 0, 0
"BUSLVMAI176", 0.20785, 1,    127.925,   88.6,     1.066, 2,    127.938,  -91.4,    1.0661, 0, 0, 0, 0
"BUSLVMAI177", 0.20785, 1,    127.975,   88.6,    1.0665, 2,    127.989,  -91.4,    1.0666, 0, 0, 0, 0
"BUSLVMAI178", 0.20785, 1,    128.459, -151.0,    1.0705, 2,    128.472,   29.0,    1.0706, 0, 0, 0, 0
"BUSLVMAI179", 0.20785, 1,    128.389, -151.0,    1.0699, 2,    128.402,   29.0,      1.07, 0, 0, 0, 0
"BUSLVMAI180", 0.20785, 1,    128.525,  -31.1,     1.071, 2,    128.539,  148.9,    1.0712, 0, 0, 0, 0
"BUSLVMAI181", 0.20785, 1,    128.517,  -31.1,     1.071, 2,    128.532,  148.9,    1.0711, 0, 0, 0, 0
"BUSLVMAI182", 0.20785, 1,    128.048,  -31.3,    1.0671, 2,    128.106,  148.7,    1.0675, 0, 0, 0, 0
"BUSLVMAI183", 0.20785, 1,    127.967,   88.6,    1.0664, 2,    127.981,  -91.4,    1.0665, 0, 0, 0, 0
"BUSLVMAI184", 0.20785, 1,    128.633,  -31.0,    1.0719, 2,    128.646,  149.0,    1.0721, 0, 0, 0, 0
"BUSLVMAI185", 0.20785, 1,    128.314, -151.0,    1.0693, 2,    128.328,   29.0,    1.0694, 0, 0, 0, 0
"BUSLVMAI186", 0.20785, 1,    128.009,   88.6,    1.0667, 2,    128.025,  -91.4,    1.0669, 0, 0, 0, 0
"BUSLVMAI187", 0.20785, 1,    127.923,   88.6,     1.066, 2,    127.936,  -91.4,    1.0661, 0, 0, 0, 0
"BUSLVMAI188", 0.20785, 1,    128.465, -150.9,    1.0705, 2,    128.481,   29.1,    1.0707, 0, 0, 0, 0
"BUSLVMAI189", 0.20785, 1,     128.52,  -31.1,     1.071, 2,    128.537,  148.9,    1.0711, 0, 0, 0, 0
"BUSLVMAI190", 0.20785, 1,    128.459, -150.9,    1.0705, 2,    128.475,   29.1,    1.0706, 0, 0, 0, 0
"BUSLVMAI191", 0.20785, 1,    128.005,   88.6,    1.0667, 2,    128.021,  -91.4,    1.0668, 0, 0, 0, 0
"BUSLVMAI192", 0.20785, 1,    128.512,  -31.1,    1.0709, 2,    128.528,  148.9,    1.0711, 0, 0, 0, 0
"BUSLVMAI193", 0.20785, 1,    128.517,  -31.1,     1.071, 2,    128.533,  148.9,    1.0711, 0, 0, 0, 0
"BUSLVMAI194", 0.20785, 1,     127.96,   88.6,    1.0663, 2,    127.976,  -91.4,    1.0665, 0, 0, 0, 0
"BUSLVMAI195", 0.20785, 1,    128.008,   88.6,    1.0667, 2,    128.023,  -91.4,    1.0669, 0, 0, 0, 0
"BUSLVMAI196", 0.20785, 1,    128.436, -150.9,    1.0703, 2,    128.452,   29.1,    1.0704, 0, 0, 0, 0
"BUSLVMAI197", 0.20785, 1,    128.418, -151.0,    1.0702, 2,    128.432,   29.0,    1.0703, 0, 0, 0, 0
"BUSLVMAI198", 0.20785, 1,    128.436, -150.9,    1.0703, 2,    128.452,   29.1,    1.0704, 0, 0, 0, 0
"BUSLVMAI199", 0.20785, 1,    128.437, -150.9,    1.0703, 2,    128.453,   29.1,    1.0704, 0, 0, 0, 0
"BUSLVMAI200", 0.20785, 1,     128.51,  -31.1,    1.0709, 2,    128.526,  148.9,    1.0711, 0, 0, 0, 0
...
